tests/data/state_estimation/ill-conditioned-system/grid4-no-capacitance/input.json
{
  "version": "1.0",
  "type": "input",
  "is_batch": false,
  "attributes": {},
  "data": {
    "node": [
      {
        "id": 0,
        "u_rated": 10000
      },
      {
        "id": 1,
        "u_rated": 10000
      },
      {
        "id": 2,
        "u_rated": 10000
      }
    ],
    "line": [
      {
        "id": 3,
        "from_node": 0,
        "to_node": 1,
        "from_status": 1,
        "to_status": 1,
        "r1": 0.1,
        "x1": 0.1,
        "c1": 0,
        "tan1": 0,
        "r0": 0.15,
        "x0": 0.15,
        "c0": 0,
        "tan0": 0
      },
      {
        "id": 4,
        "from_node": 0,
        "to_node": 2,
        "from_status": 1,
        "to_status": 1,
        "r1": 0.1,
        "x1": 0.1,
        "c1": 0,
        "tan1": 0,
        "r0": 0.15,
        "x0": 0.15,
        "c0": 0,
        "tan0": 0
      }
    ],
    "source": [
      {
        "id": 5,
        "node": 0,
        "status": 1,
        "u_ref": 1,
        "sk": 200000000
      }
    ],
    "sym_load": [
      {
        "id": 6,
        "node": 1,
        "status": 1,
        "type": 0,
        "p_specified": 1500000,
        "q_specified": 900000
      },
      {
        "id": 7,
        "node": 2,
        "status": 1,
        "type": 0,
        "p_specified": 1500000,
        "q_specified": 900000
      },
      {
        "id": 8,
        "node": 2,
        "status": 1,
        "type": 0,
        "p_specified": 1500000,
        "q_specified": 900000
      }
    ],
    "sym_power_sensor": [
      {
        "id": 10,
        "measured_object": 5,
        "measured_terminal_type": 2,
        "power_sigma": 52697.46162410962,
        "p_measured": 4515952.475921471,
        "q_measured": 2715952.475921441
      },
      {
        "id": 11,
        "measured_object": 4,
        "measured_terminal_type": 1,
        "power_sigma": 52697.46162410962,
        "p_measured": -5399999.999999974,
        "q_measured": -3239999.999999869
      },
      {
        "id": 12,
        "measured_object": 7,
        "measured_terminal_type": 4,
        "power_sigma": 18631.36623286288,
        "p_measured": 1199999.999999994,
        "q_measured": 719999.9999999709
      },
      {
        "id": 13,
        "measured_object": 8,
        "measured_terminal_type": 4,
        "power_sigma": 18631.36623286288,
        "p_measured": 1199999.999999994,
        "q_measured": 719999.9999999709
      }
    ],
    "sym_voltage_sensor": [
      {
        "id": 9,
        "measured_object": 0,
        "u_sigma": 10,
        "u_measured": 9837.5014168914
      }
    ]
  }
}
