tests/data/state_estimation/ill-conditioned-system/grid4-no-capacitance/asym_output.json
{
  "version": "1.0",
  "type": "asym_output",
  "is_batch": false,
  "attributes": {},
  "data": {
    "node": [
      {
        "id": 0,
        "energized": 1,
        "u_pu": [
          0.9837501416891404,
          0.9837501416891397,
          0.9837501416891389
        ],
        "u": [
          5679.684091195577,
          5679.684091195572,
          5679.684091195568
        ],
        "u_angle": [
          -0.02146692284126047,
          -2.115862025234457,
          2.072928179551933
        ],
        "p": [
          1505317.491973749,
          1505317.49197392,
          1505317.491973825
        ],
        "q": [
          905317.4919738546,
          905317.4919738603,
          905317.4919738517
        ]
      },
      {
        "id": 1,
        "energized": 1,
        "u_pu": [
          0.9813042269632496,
          0.9813042269632485,
          0.9813042269632478
        ],
        "u": [
          5665.562595941497,
          5665.562595941491,
          5665.562595941487
        ],
        "u_angle": [
          -0.02208845384999588,
          -2.116483556243193,
          2.072306648543198
        ],
        "p": [
          -499999.9999999412,
          -500000.0000000325,
          -499999.9999999489
        ],
        "q": [
          -299999.9999999705,
          -299999.999999998,
          -299999.9999999704
        ]
      },
      {
        "id": 2,
        "energized": 1,
        "u_pu": [
          0.9788456424477889,
          0.9788456424477879,
          0.978845642447787
        ],
        "u": [
          5651.367951623231,
          5651.367951623225,
          5651.367951623221
        ],
        "u_angle": [
          -0.02271310732266705,
          -2.117108209715864,
          2.071681995070526
        ],
        "p": [
          -999999.9999999588,
          -1000000.000000018,
          -1000000.000000012
        ],
        "q": [
          -600000.0000000151,
          -599999.999999993,
          -600000.000000004
        ]
      }
    ],
    "line": [
      {
        "id": 3,
        "energized": 1,
        "p_from": [
          501059.2362438705,
          501059.2362439621,
          501059.2362438784
        ],
        "q_from": [
          301059.2362438999,
          301059.2362439276,
          301059.2362438999
        ],
        "i_from": [
          102.9192034524801,
          102.9192034524966,
          102.9192034524815
        ],
        "s_from": [
          584548.5625275724,
          584548.5625276652,
          584548.562527579
        ],
        "p_to": [
          -499999.9999999412,
          -500000.0000000325,
          -499999.9999999489
        ],
        "q_to": [
          -299999.9999999705,
          -299999.999999998,
          -299999.9999999704
        ],
        "i_to": [
          102.9192034524801,
          102.9192034524966,
          102.9192034524815
        ],
        "s_to": [
          583095.1894844645,
          583095.1894845569,
          583095.189484471
        ]
      },
      {
        "id": 4,
        "energized": 1,
        "p_from": [
          1004258.255729898,
          1004258.255729958,
          1004258.255729951
        ],
        "q_from": [
          604258.2557299545,
          604258.2557299327,
          604258.2557299436
        ],
        "i_from": [
          206.3554149989597,
          206.3554149989669,
          206.3554149989671
        ],
        "s_from": [
          1172033.567701652,
          1172033.567701693,
          1172033.567701693
        ],
        "p_to": [
          -999999.9999999588,
          -1000000.000000018,
          -1000000.000000012
        ],
        "q_to": [
          -600000.0000000151,
          -599999.999999993,
          -600000.000000004
        ],
        "i_to": [
          206.3554149989597,
          206.3554149989669,
          206.3554149989671
        ],
        "s_to": [
          1166190.378969033,
          1166190.378969072,
          1166190.378969072
        ]
      }
    ],
    "source": [
      {
        "id": 5,
        "energized": 1,
        "p": [
          1505317.491973749,
          1505317.49197392,
          1505317.491973825
        ],
        "q": [
          905317.4919738545,
          905317.4919738603,
          905317.4919738518
        ],
        "i": [
          309.2746050541666,
          309.2746050541931,
          309.2746050541783
        ],
        "s": [
          1756582.054136945,
          1756582.054137094,
          1756582.054137009
        ],
        "pf": [
          0.8569582550547867,
          0.8569582550548113,
          0.8569582550547991
        ]
      }
    ],
    "sym_load": [
      {
        "id": 6,
        "energized": 1,
        "p": [
          500000,
          500000,
          500000
        ],
        "q": [
          299999.9999999999,
          299999.9999999999,
          299999.9999999999
        ],
        "i": [
          102.9192034524917,
          102.9192034524918,
          102.9192034524919
        ],
        "s": [
          583095.1894845299,
          583095.1894845299,
          583095.1894845299
        ],
        "pf": [
          0.8574929257125444,
          0.8574929257125444,
          0.8574929257125444
        ]
      },
      {
        "id": 7,
        "energized": 1,
        "p": [
          500000,
          500000,
          500000
        ],
        "q": [
          299999.9999999999,
          299999.9999999999,
          299999.9999999999
        ],
        "i": [
          103.1777074994823,
          103.1777074994824,
          103.1777074994825
        ],
        "s": [
          583095.1894845299,
          583095.1894845299,
          583095.1894845299
        ],
        "pf": [
          0.8574929257125444,
          0.8574929257125444,
          0.8574929257125444
        ]
      },
      {
        "id": 8,
        "energized": 1,
        "p": [
          500000,
          500000,
          500000
        ],
        "q": [
          299999.9999999999,
          299999.9999999999,
          299999.9999999999
        ],
        "i": [
          103.1777074994823,
          103.1777074994824,
          103.1777074994825
        ],
        "s": [
          583095.1894845299,
          583095.1894845299,
          583095.1894845299
        ],
        "pf": [
          0.8574929257125444,
          0.8574929257125444,
          0.8574929257125444
        ]
      }
    ]
  }
}
