tests/data/state_estimation/ill-conditioned-system/grid4-no-capacitance/sym_output.json
{
  "version": "1.0",
  "type": "sym_output",
  "is_batch": false,
  "attributes": {},
  "data": {
    "node": [
      {
        "id": 0,
        "energized": 1,
        "u_pu": 0.9837501416891401,
        "u": 9837.5014168914,
        "u_angle": -0.02146692284126162,
        "p": 4515952.475921472,
        "q": 2715952.475921441
      },
      {
        "id": 1,
        "energized": 1,
        "u_pu": 0.9813042269632491,
        "u": 9813.042269632491,
        "u_angle": -0.02208845384999703,
        "p": -1499999.99999988,
        "q": -899999.9999999083
      },
      {
        "id": 2,
        "energized": 1,
        "u_pu": 0.9788456424477885,
        "u": 9788.456424477885,
        "u_angle": -0.02271310732266829,
        "p": -2999999.999999986,
        "q": -1799999.999999927
      }
    ],
    "line": [
      {
        "id": 3,
        "energized": 1,
        "p_from": 1503177.708731668,
        "q_from": 903177.7087316965,
        "i_from": 102.9192034524829,
        "s_from": 1753645.687582764,
        "p_to": -1499999.99999988,
        "q_to": -899999.9999999083,
        "i_to": 102.9192034524829,
        "s_to": 1749285.56845344
      },
      {
        "id": 4,
        "energized": 1,
        "p_from": 3012774.767189804,
        "q_from": 1812774.767189745,
        "i_from": 206.3554149989617,
        "s_from": 3516100.703104991,
        "p_to": -2999999.999999986,
        "q_to": -1799999.999999927,
        "i_to": 206.3554149989617,
        "s_to": 3498571.13690713
      }
    ],
    "source": [
      {
        "id": 5,
        "energized": 1,
        "p": 4515952.475921471,
        "q": 2715952.475921441,
        "i": 309.2746050541742,
        "s": 5269746.162410962,
        "pf": 0.8569582550548083
      }
    ],
    "sym_load": [
      {
        "id": 6,
        "energized": 1,
        "p": 1500000,
        "q": 899999.9999999999,
        "i": 102.9192034524917,
        "s": 1749285.56845359,
        "pf": 0.8574929257125443
      },
      {
        "id": 7,
        "energized": 1,
        "p": 1500000,
        "q": 899999.9999999999,
        "i": 103.1777074994823,
        "s": 1749285.56845359,
        "pf": 0.8574929257125443
      },
      {
        "id": 8,
        "energized": 1,
        "p": 1500000,
        "q": 899999.9999999999,
        "i": 103.1777074994823,
        "s": 1749285.56845359,
        "pf": 0.8574929257125443
      }
    ]
  }
}
